Version 4
SHEET 1 1128 680
WIRE 32 192 -80 192
WIRE 208 192 96 192
WIRE 400 192 336 192
WIRE 480 192 400 192
WIRE 592 192 544 192
WIRE 656 192 592 192
WIRE 912 192 832 192
WIRE 976 192 912 192
FLAG 592 192 vs
FLAG 400 192 io
FLAG 912 192 vc
SYMBOL Control\\TF2 256 192 R0
WINDOW 3 9 75 Bottom 2
WINDOW 123 6 104 Bottom 2
SYMATTR Value k={Gdo*wz/wp}
SYMATTR Value2 a={wz} b={wp}
SYMATTR InstName U1
SYMBOL Control\\acs -112 192 R0
WINDOW 3 -3 67 Bottom 2
WINDOW 123 -2 97 Bottom 2
SYMATTR InstName U2
SYMBOL Control\\gain 512 192 R0
WINDOW 3 -1 65 Bottom 2
SYMATTR InstName U3
SYMBOL Control\\TF5 704 192 R0
WINDOW 3 148 81 Bottom 2
WINDOW 123 164 123 Bottom 2
SYMATTR Value k={(R1+R2)*CTR/(R1*Rop*Cop)}
SYMATTR Value2 a=0 b={1/(Rc*Cop)} c={1/((R1+R2)*C2)}
SYMATTR InstName U4
SYMBOL Control\\gain 64 192 R0
WINDOW 3 -1 65 Bottom 2
SYMATTR Value A={kpwm}
SYMATTR InstName U5
TEXT -144 -144 Left 2 !; Flyback\n.param Gdo=4.93  fz=8.81 fp=2.62k\n.param wz=2*pi*fz wp=2*pi*fp\n; PWM\n.param kpwm=0.1
TEXT 224 96 Left 2 ;Flyback
TEXT 424 96 Left 2 ;Current sensor
TEXT 232 40 Left 2 !.ac dec 101 1 100k
TEXT 512 -144 Left 2 !; Compensator\n.param CTR=0.5 R2=13.1k C2=1u\n.param Rc=6.1k Cop=10n R1=5k Rop=2.22k
TEXT 672 96 Left 2 ;Compensator
TEXT 32 96 Left 2 ;PWM
