Version 4
SHEET 1 1796 1012
WIRE 144 -48 64 -48
WIRE 288 -48 144 -48
WIRE 576 -48 320 -48
WIRE 800 -48 576 -48
WIRE 1008 -48 880 -48
WIRE 1168 -48 1072 -48
WIRE 1248 -48 1168 -48
WIRE 1312 -48 1248 -48
WIRE 1312 -32 1312 -48
WIRE 64 0 64 -48
WIRE 144 0 144 -48
WIRE 800 0 800 -48
WIRE 880 0 880 -48
WIRE 304 16 304 -32
WIRE 352 16 304 16
WIRE 384 16 352 16
WIRE 1312 48 1312 32
WIRE -528 96 -592 96
WIRE -352 96 -528 96
WIRE -224 96 -320 96
WIRE -96 96 -144 96
WIRE -64 96 -96 96
WIRE 64 96 64 64
WIRE 64 96 -64 96
WIRE 1168 112 1168 -48
WIRE -592 128 -592 96
WIRE -64 128 -64 96
WIRE -336 144 -336 112
WIRE -288 144 -336 144
WIRE -256 144 -288 144
WIRE 1312 144 1312 128
WIRE 800 160 800 80
WIRE -592 240 -592 208
WIRE -64 240 -64 192
WIRE -64 240 -592 240
WIRE -16 240 -64 240
WIRE 144 240 144 64
WIRE 144 240 -16 240
WIRE 528 240 464 240
WIRE 576 240 528 240
WIRE 704 240 640 240
WIRE 752 240 704 240
WIRE 64 256 64 96
WIRE 144 256 144 240
WIRE 1312 256 1312 224
WIRE 1520 256 1312 256
WIRE 1600 256 1520 256
WIRE 1312 272 1312 256
WIRE 64 368 64 320
WIRE 144 368 144 320
WIRE 144 368 64 368
WIRE 608 368 608 256
WIRE 608 368 144 368
WIRE 800 368 800 256
WIRE 800 368 608 368
WIRE 880 368 880 80
WIRE 880 368 800 368
WIRE 1168 368 1168 176
WIRE 1168 368 880 368
WIRE 1312 368 1312 352
WIRE 1312 368 1168 368
WIRE 64 400 64 368
WIRE 1136 464 1104 464
WIRE 1248 464 1200 464
WIRE 1408 464 1328 464
WIRE 896 512 752 512
WIRE 240 528 112 528
WIRE 320 528 240 528
WIRE 1408 544 1408 464
WIRE 1408 544 1296 544
WIRE 1440 544 1408 544
WIRE 1664 544 1520 544
WIRE 1696 544 1664 544
WIRE 320 560 320 528
WIRE 384 560 320 560
WIRE 896 560 896 512
WIRE 1104 560 1104 464
WIRE 1136 560 1104 560
WIRE 1232 560 1136 560
WIRE 544 576 448 576
WIRE 576 576 544 576
WIRE 752 576 752 512
WIRE 1408 576 1296 576
WIRE 384 592 320 592
WIRE 1696 592 1696 544
WIRE 1408 624 1408 576
WIRE 1600 624 1600 256
WIRE 1600 624 1408 624
WIRE 1104 640 1104 560
WIRE 896 672 896 640
WIRE 1696 720 1696 672
WIRE 320 768 320 592
WIRE 400 768 320 768
WIRE 528 768 400 768
WIRE 656 768 528 768
WIRE 752 768 752 656
WIRE 752 768 656 768
WIRE 832 768 752 768
WIRE 1104 768 1104 720
WIRE 1104 768 1024 768
WIRE 400 800 400 768
WIRE 656 816 656 768
WIRE 832 864 784 864
WIRE 1072 864 1024 864
WIRE 400 880 400 864
WIRE 656 928 656 880
WIRE 784 928 784 864
WIRE 784 928 656 928
WIRE 784 976 784 928
WIRE 1072 976 1072 864
WIRE 400 992 400 960
FLAG 64 400 0
FLAG -288 144 ig
FLAG 352 16 i1
FLAG 1248 -48 out
FLAG 704 240 gate
FLAG 576 -48 in
FLAG -528 96 ac
FLAG -96 96 ac1
FLAG -16 240 ac2
FLAG 528 240 pwm
FLAG 544 576 pwm
FLAG 240 528 sw
FLAG 1072 976 0
FLAG 784 976 0
FLAG 896 672 0
FLAG 1696 720 0
FLAG 1520 256 vs
FLAG 528 768 vc
FLAG 1136 560 ve
FLAG 1664 544 ref
FLAG 400 992 0
SYMBOL voltage -592 112 R0
WINDOW 123 0 0 Left 0
WINDOW 39 0 0 Left 0
WINDOW 3 33 86 Left 2
SYMATTR Value SINE(0 {sqrt(2)*230} 50)
SYMATTR InstName Vg
SYMBOL cap 1152 112 R0
SYMATTR InstName Co
SYMATTR Value 1.2m
SYMBOL res 1296 32 R0
SYMATTR InstName Rd
SYMATTR Value 16.4
SYMBOL voltage 1312 128 R0
WINDOW 0 44 34 Left 2
WINDOW 3 37 68 Left 2
SYMATTR InstName Vd
SYMATTR Value 63.5
SYMBOL Control\\isense -336 96 R0
SYMATTR InstName U6
SYMBOL ind2 784 -16 R0
WINDOW 0 -42 39 Left 2
WINDOW 3 -59 76 Left 2
SYMATTR InstName L1
SYMATTR Value {L1}
SYMBOL nmos 752 160 R0
WINDOW 3 -87 -11 Left 2
SYMATTR Value STP8NM60
SYMATTR InstName M1
SYMBOL Control\\driver 608 240 R0
WINDOW 3 41 41 Bottom 2
SYMATTR Value k=15
SYMATTR InstName U7
SYMBOL Control\\isense 304 -48 R0
WINDOW 0 4 -23 Bottom 2
SYMATTR InstName U9
SYMBOL diode 80 64 R180
WINDOW 0 24 64 Left 2
WINDOW 3 24 0 Left 2
SYMATTR InstName D2
SYMATTR Value MUR460
SYMBOL diode 160 64 R180
WINDOW 0 24 64 Left 2
WINDOW 3 -91 0 Left 2
SYMATTR InstName D3
SYMATTR Value MUR460
SYMBOL diode 80 320 R180
WINDOW 0 24 64 Left 2
WINDOW 3 24 0 Left 2
SYMATTR InstName D4
SYMATTR Value MUR460
SYMBOL diode 160 320 R180
WINDOW 0 24 64 Left 2
WINDOW 3 -81 -2 Left 2
SYMATTR InstName D5
SYMATTR Value MUR460
SYMBOL ind2 896 96 R180
WINDOW 0 -48 65 Left 2
WINDOW 3 -125 31 Left 2
SYMATTR InstName L2
SYMATTR Value {n**2*L1}
SYMBOL diode 1008 -32 R270
WINDOW 0 32 32 VTop 2
WINDOW 3 0 32 VBottom 2
SYMATTR InstName D1
SYMATTR Value MUR460
SYMBOL Control\\idiode 1296 -32 R0
SYMATTR InstName U1
SYMBOL ind -240 112 R270
WINDOW 0 32 56 VTop 2
WINDOW 3 5 56 VBottom 2
SYMATTR InstName L3
SYMATTR Value 18.8m
SYMBOL cap -80 128 R0
SYMATTR InstName C1
SYMATTR Value 13.5n
SYMBOL Control\\comp 416 576 M180
SYMATTR InstName U2
SYMBOL Control\\sawtooth 80 528 R0
WINDOW 3 -4 67 Bottom 2
WINDOW 123 -6 93 Bottom 2
SYMATTR Value Vlow=0 Vhigh=10
SYMATTR InstName U3
SYMBOL MyOpto 928 816 M0
WINDOW 123 0 108 Center 2
WINDOW 39 0 136 Center 2
WINDOW 40 0 164 Center 2
SYMATTR SpiceLine2 Cop=0.1n
SYMATTR InstName U4
SYMBOL res 736 560 R0
SYMATTR InstName Rc
SYMATTR Value 6.1k
SYMBOL voltage 896 544 R0
WINDOW 0 45 23 Left 2
WINDOW 3 40 59 Left 2
WINDOW 123 0 0 Left 0
WINDOW 39 0 0 Left 0
SYMATTR InstName V1
SYMATTR Value 15
SYMBOL cap 640 816 R0
SYMATTR InstName Cop
SYMATTR Value 10n
SYMBOL res 1088 624 R0
SYMATTR InstName Rop
SYMATTR Value 2.22k
SYMBOL MyOpamp 1264 560 R180
WINDOW 39 -43 -74 Center 2
WINDOW 40 -57 -99 Center 2
WINDOW 38 16 -22 Left 2
SYMATTR InstName U5
SYMBOL res 1344 448 R90
WINDOW 0 0 56 VBottom 2
WINDOW 3 32 56 VTop 2
SYMATTR InstName R2
SYMATTR Value 13.1k
SYMBOL res 1536 528 R90
WINDOW 0 0 56 VBottom 2
WINDOW 3 32 56 VTop 2
SYMATTR InstName R1
SYMATTR Value 5k
SYMBOL cap 1200 448 R90
WINDOW 0 0 32 VBottom 2
WINDOW 3 32 32 VTop 2
SYMATTR InstName C2
SYMATTR Value 1µ
SYMBOL res 1296 256 R0
SYMATTR InstName Rs
SYMATTR Value 1
SYMBOL voltage 1696 576 R0
WINDOW 0 44 39 Left 2
WINDOW 3 46 75 Left 2
SYMATTR InstName V2
SYMATTR Value 0.45
SYMBOL Control\\idiode 384 800 R0
WINDOW 38 43 30 Left 2
SYMATTR InstName U8
SYMBOL voltage 400 864 R0
WINDOW 0 46 34 Left 2
WINDOW 3 37 71 Left 2
WINDOW 123 0 0 Left 0
WINDOW 39 0 0 Left 0
SYMATTR InstName V3
SYMATTR Value 3
TEXT -360 -80 Left 2 !.tran 0 300m 0 0.1u uic
TEXT 8 -200 Left 2 !.param fs=100k\n.param n=1\n.param L1=228u
TEXT 776 -80 Left 2 !k12 L1 L2 1
TEXT -360 -40 Left 2 !.options reltol=1m
TEXT 1736 584 Left 2 ;REF
TEXT 392 512 Left 2 ;PWM
TEXT 280 872 Left 2 ;LIMITER
